Version 4
SHEET 1 6084 3144
WIRE 3520 -176 3488 -176
WIRE 3616 -176 3600 -176
WIRE 1408 -128 1392 -128
WIRE 1520 -128 1488 -128
WIRE 1744 -128 1520 -128
WIRE 2640 -112 2624 -112
WIRE 3488 -112 3488 -176
WIRE 3840 -112 3488 -112
WIRE 1392 -96 1392 -128
WIRE 2640 -96 2640 -112
WIRE 3872 -80 3792 -80
WIRE 2400 -64 2208 -64
WIRE 2544 -64 2544 -112
WIRE 2544 -64 2400 -64
WIRE 3392 -48 3360 -48
WIRE 3552 -48 3472 -48
WIRE 2400 -32 2400 -64
WIRE 3792 -16 3792 -80
WIRE 3808 -16 3792 -16
WIRE 3936 -16 3936 -80
WIRE 3936 -16 3888 -16
WIRE 1520 16 1520 -128
WIRE 1520 16 1344 16
WIRE 1648 16 1520 16
WIRE 1744 32 1744 -128
WIRE 3488 32 3488 -112
WIRE 3248 48 2976 48
WIRE 3360 48 3360 -48
WIRE 3360 48 3328 48
WIRE 3456 48 3360 48
WIRE 3488 48 3488 32
WIRE 3840 48 3840 -112
WIRE 2064 64 2032 64
WIRE 2672 64 2128 64
WIRE 3552 64 3552 -48
WIRE 3552 64 3520 64
WIRE 3568 64 3552 64
WIRE 3680 64 3632 64
WIRE 3792 64 3792 -16
WIRE 3792 64 3760 64
WIRE 3808 64 3792 64
WIRE 3456 80 3376 80
WIRE 3936 80 3936 -16
WIRE 3936 80 3872 80
WIRE 3952 80 3936 80
WIRE 2544 96 2544 -64
WIRE 3808 96 3776 96
WIRE 2512 112 2256 112
WIRE 3376 112 3376 80
WIRE 3776 112 3776 96
WIRE 2672 128 2672 64
WIRE 2672 128 2576 128
WIRE 1456 144 1440 144
WIRE 2032 144 2032 64
WIRE 2032 144 1856 144
WIRE 2112 144 2032 144
WIRE 2256 144 2256 112
WIRE 2256 144 2112 144
WIRE 2400 144 2400 48
WIRE 2512 144 2400 144
WIRE 3632 144 3632 64
WIRE 3696 144 3632 144
WIRE 1408 160 1328 160
WIRE 1024 176 912 176
WIRE 1232 176 1104 176
WIRE 1456 176 1456 144
WIRE 1744 192 1744 112
WIRE 1744 192 1568 192
WIRE 3696 224 3696 144
WIRE 1744 240 1744 192
WIRE 1856 240 1856 144
WIRE 1344 256 1344 16
WIRE 2976 256 2976 48
WIRE 3152 256 2976 256
WIRE 3296 256 3152 256
WIRE 3424 256 3360 256
WIRE 3632 256 3632 144
WIRE 3632 256 3424 256
WIRE 1136 272 1056 272
WIRE 1232 272 1232 176
WIRE 1232 272 1216 272
WIRE 1248 272 1248 160
WIRE 1248 272 1232 272
WIRE 1312 272 1248 272
WIRE 1408 288 1408 160
WIRE 1408 288 1376 288
WIRE 1440 288 1440 144
WIRE 1440 288 1408 288
WIRE 1456 288 1456 256
WIRE 1680 288 1456 288
WIRE 1952 288 1920 288
WIRE 2400 288 2400 144
WIRE 2544 288 2400 288
WIRE 2672 288 2672 128
WIRE 2672 288 2624 288
WIRE 912 304 912 176
WIRE 1056 304 1056 272
WIRE 1312 304 1280 304
WIRE 1456 304 1456 288
WIRE 1952 304 1952 288
WIRE 1280 352 1280 304
WIRE 3152 368 3152 256
WIRE 3168 368 3152 368
WIRE 3312 368 3232 368
WIRE 3424 368 3424 256
WIRE 3424 368 3392 368
WIRE 1456 400 1456 384
WIRE 1744 400 1744 336
WIRE 1792 400 1744 400
WIRE 1856 400 1856 336
WIRE 1856 400 1792 400
WIRE 1056 416 1056 384
WIRE 2208 416 2208 -64
WIRE 2528 416 2208 416
WIRE 912 432 912 384
WIRE 3488 448 3488 96
WIRE 3696 448 3696 304
WIRE 3696 448 3488 448
WIRE 3840 448 3840 112
WIRE 3840 448 3696 448
WIRE 2256 480 2160 480
WIRE 2352 480 2256 480
WIRE 2448 480 2432 480
WIRE 2480 480 2448 480
WIRE 2608 480 2560 480
WIRE 1568 496 1568 192
WIRE 1680 496 1568 496
WIRE 1792 496 1792 480
WIRE 1792 496 1744 496
WIRE 2208 512 2208 416
WIRE 2528 512 2528 416
WIRE 2160 528 2160 480
WIRE 2176 528 2160 528
WIRE 2448 528 2448 480
WIRE 2496 528 2448 528
WIRE 2528 528 2528 512
WIRE 1648 544 1648 16
WIRE 2256 544 2256 480
WIRE 2256 544 2240 544
WIRE 2608 544 2608 480
WIRE 2608 544 2560 544
WIRE 2656 544 2608 544
WIRE 2976 544 2976 256
WIRE 2976 544 2656 544
WIRE 3488 544 3488 448
WIRE 1568 560 1568 496
WIRE 1616 560 1568 560
WIRE 2112 560 2112 144
WIRE 2176 560 2112 560
WIRE 2496 560 2416 560
WIRE 1792 576 1792 496
WIRE 1792 576 1680 576
WIRE 1616 592 1600 592
WIRE 2656 592 2656 544
WIRE 2208 608 2208 576
WIRE 2528 608 2528 576
WIRE 5232 624 5056 624
WIRE 5328 624 5312 624
WIRE 5408 624 5328 624
WIRE 5552 624 5488 624
WIRE 1600 640 1600 592
WIRE 1248 656 1232 656
WIRE 1344 656 1344 320
WIRE 1344 656 1328 656
WIRE 1648 656 1648 608
WIRE 1648 656 1344 656
WIRE 2416 672 2416 560
WIRE 5328 672 5328 624
WIRE 5552 672 5552 624
WIRE 1232 688 1232 656
WIRE 4784 704 4560 704
WIRE 4944 704 4784 704
WIRE 5056 704 5056 624
WIRE 5056 704 5024 704
WIRE 5152 704 5056 704
WIRE 5264 720 5216 720
WIRE 3168 736 3168 720
WIRE 3936 736 3936 80
WIRE 3936 736 3168 736
WIRE 5152 736 5120 736
WIRE 2416 768 2416 752
WIRE 5120 768 5120 736
WIRE 4016 800 3824 800
WIRE 4176 800 4016 800
WIRE 4016 816 4016 800
WIRE 4240 912 4128 912
WIRE 3888 928 3776 928
WIRE 4016 928 4016 896
WIRE 3824 944 3824 800
WIRE 4176 944 4176 800
WIRE 3776 960 3776 928
WIRE 3792 960 3776 960
WIRE 4128 960 4128 912
WIRE 4144 960 4128 960
WIRE 3888 976 3888 928
WIRE 3888 976 3856 976
WIRE 4240 976 4240 912
WIRE 4240 976 4208 976
WIRE 4768 976 4240 976
WIRE 2784 992 2768 992
WIRE 3168 992 3168 736
WIRE 3568 992 3168 992
WIRE 3712 992 3648 992
WIRE 3792 992 3712 992
WIRE 3888 992 3888 976
WIRE 3936 992 3888 992
WIRE 4064 992 4016 992
WIRE 4144 992 4064 992
WIRE 2784 1008 2784 992
WIRE 3712 1024 3712 992
WIRE 4064 1024 4064 992
WIRE 2688 1056 2688 992
WIRE 3024 1056 2688 1056
WIRE 5760 1056 5728 1056
WIRE 5872 1056 5840 1056
WIRE 5328 1072 5328 768
WIRE 5376 1072 5328 1072
WIRE 2656 1088 2656 592
WIRE 2656 1088 2480 1088
WIRE 5424 1088 5424 1056
WIRE 3712 1120 3712 1088
WIRE 4064 1120 4064 1088
WIRE 4768 1120 4768 976
WIRE 4992 1120 4768 1120
WIRE 5024 1120 4992 1120
WIRE 5136 1120 5104 1120
WIRE 5184 1120 5136 1120
WIRE 2720 1136 2544 1136
WIRE 2816 1136 2800 1136
WIRE 5136 1136 5136 1120
WIRE 2976 1152 2960 1152
WIRE 3104 1152 3056 1152
WIRE 5376 1152 5376 1072
WIRE 2544 1184 2544 1136
WIRE 2608 1184 2544 1184
WIRE 2688 1184 2688 1056
WIRE 3824 1184 3824 1008
WIRE 4016 1184 3824 1184
WIRE 4176 1184 4176 1008
WIRE 4176 1184 4016 1184
WIRE 5424 1184 5424 1168
WIRE 5424 1184 5408 1184
WIRE 5456 1184 5424 1184
WIRE 5728 1184 5728 1056
WIRE 5728 1184 5696 1184
WIRE 5744 1184 5728 1184
WIRE 2544 1200 2544 1184
WIRE 2608 1200 2608 1184
WIRE 2656 1200 2608 1200
WIRE 3024 1200 3024 1056
WIRE 4016 1200 4016 1184
WIRE 5424 1200 5424 1184
WIRE 5872 1200 5872 1056
WIRE 5872 1200 5808 1200
WIRE 2816 1216 2816 1136
WIRE 2816 1216 2720 1216
WIRE 2848 1216 2816 1216
WIRE 2960 1216 2960 1152
WIRE 2960 1216 2928 1216
WIRE 2992 1216 2960 1216
WIRE 5744 1216 5728 1216
WIRE 2480 1232 2480 1088
WIRE 2656 1232 2480 1232
WIRE 3104 1232 3104 1152
WIRE 3104 1232 3056 1232
WIRE 2992 1248 2976 1248
WIRE 5136 1248 5136 1216
WIRE 5184 1248 5136 1248
WIRE 5728 1248 5728 1216
WIRE 2688 1264 2688 1248
WIRE 2800 1264 2688 1264
WIRE 5520 1264 5520 1216
WIRE 2688 1280 2688 1264
WIRE 2800 1296 2800 1264
WIRE 3024 1296 3024 1264
WIRE 3024 1296 2800 1296
WIRE 5136 1296 5136 1248
WIRE 5424 1296 5424 1280
WIRE 4016 1312 4016 1280
WIRE 2976 1328 2976 1248
WIRE 4720 1328 4720 1296
WIRE 4832 1328 4832 1296
WIRE 4304 1344 4160 1344
WIRE 4560 1344 4560 704
WIRE 4560 1344 4304 1344
WIRE 5520 1392 5520 1344
WIRE 4720 1440 4720 1408
WIRE 4832 1440 4832 1408
WIRE 5408 1456 5408 1184
WIRE 5696 1456 5696 1184
WIRE 5696 1456 5408 1456
WIRE 3664 1952 3472 1952
WIRE 2384 1968 2272 1968
WIRE 2560 1968 2464 1968
WIRE 2768 1968 2640 1968
WIRE 2976 1968 2832 1968
WIRE 3568 1984 3536 1984
WIRE 2912 2000 2896 2000
WIRE 3536 2000 3536 1984
WIRE 2896 2016 2896 2000
WIRE 3472 2016 3472 1952
WIRE 3504 2016 3472 2016
WIRE 2832 2032 2832 1968
WIRE 2864 2032 2832 2032
WIRE 3664 2032 3664 1952
WIRE 3664 2032 3568 2032
WIRE 3984 2032 3664 2032
WIRE 4160 2032 4160 1344
WIRE 4160 2032 4080 2032
WIRE 2976 2048 2976 1968
WIRE 2976 2048 2928 2048
WIRE 3072 2048 2976 2048
WIRE 3232 2048 3152 2048
WIRE 3408 2048 3296 2048
WIRE 3504 2048 3408 2048
WIRE 2768 2064 2768 1968
WIRE 2864 2064 2768 2064
WIRE 3984 2064 3984 2032
WIRE 2432 2080 2384 2080
WIRE 2688 2080 2656 2080
WIRE 3536 2080 3536 2064
WIRE 3568 2080 3536 2080
WIRE 3792 2080 3760 2080
WIRE 2896 2096 2896 2080
WIRE 2912 2096 2896 2096
WIRE 2384 2112 2384 2080
WIRE 3760 2112 3760 2080
WIRE 2000 2144 1856 2144
WIRE 2032 2144 2000 2144
WIRE 2192 2144 2096 2144
WIRE 2432 2144 2192 2144
WIRE 2768 2144 2768 2064
WIRE 2768 2144 2656 2144
WIRE 1856 2160 1856 2144
WIRE 2032 2176 2032 2160
WIRE 3984 2176 3984 2144
WIRE 4080 2176 4080 2032
WIRE 4080 2176 3984 2176
WIRE 4112 2176 4080 2176
WIRE 2432 2208 2384 2208
WIRE 2768 2208 2768 2144
WIRE 2768 2208 2656 2208
WIRE 3984 2208 3984 2176
WIRE 3760 2224 3760 2192
WIRE 2976 2240 2976 2048
WIRE 3088 2240 2976 2240
WIRE 3248 2240 3184 2240
WIRE 3408 2240 3408 2048
WIRE 3408 2240 3328 2240
WIRE 1856 2256 1856 2240
WIRE 2768 2256 2768 2208
WIRE 2192 2272 2192 2144
WIRE 2432 2272 2192 2272
WIRE 2704 2272 2656 2272
WIRE 3616 2272 3584 2272
WIRE 2704 2288 2704 2272
WIRE 3584 2288 3584 2272
WIRE 3664 2304 3664 2032
WIRE 3664 2304 3616 2304
WIRE 3120 2320 3120 2288
WIRE 3456 2320 3120 2320
WIRE 3552 2320 3520 2320
WIRE 3984 2320 3984 2288
WIRE 3760 2336 3760 2304
WIRE 3760 2336 3616 2336
WIRE 2704 2368 2704 2352
WIRE 2768 2368 2768 2320
WIRE 2768 2368 2704 2368
WIRE 3584 2368 3584 2352
WIRE 3616 2368 3584 2368
WIRE 3760 2368 3760 2336
WIRE 2000 2384 2000 2144
WIRE 2576 2384 2000 2384
WIRE 2768 2400 2768 2368
WIRE 3760 2480 3760 2448
WIRE 2016 2512 1968 2512
WIRE 1968 2528 1968 2512
WIRE 2976 2528 2976 2240
WIRE 3088 2528 2976 2528
WIRE 3248 2528 3184 2528
WIRE 3408 2528 3408 2240
WIRE 3408 2528 3328 2528
WIRE 1968 2624 1968 2608
WIRE 2032 2624 1968 2624
WIRE 1968 2640 1968 2624
WIRE 2032 2640 2032 2624
WIRE 3408 2672 3408 2528
WIRE 3504 2672 3408 2672
WIRE 3504 2688 3504 2672
WIRE 3408 2720 3408 2672
WIRE 1968 2752 1968 2720
WIRE 2016 2752 1968 2752
WIRE 2576 2768 2576 2384
WIRE 3200 2768 2576 2768
WIRE 3344 2768 3280 2768
WIRE 3504 2784 3504 2752
WIRE 3120 2816 3120 2576
WIRE 3408 2848 3408 2816
WIRE 3120 2992 3120 2880
WIRE 3120 2992 1984 2992
WIRE 1984 3008 1984 2992
WIRE 1984 3104 1984 3088
FLAG 2688 1360 0
FLAG 2784 1008 0
FLAG 2544 1280 0
FLAG 3712 1120 0
FLAG 4064 1120 0
FLAG 4016 928 0
FLAG 4240 976 VCF_out
FLAG 4016 1312 0
FLAG 4304 1344 ADSR
FLAG 2976 1328 0
FLAG 2544 160 0
FLAG 2640 -96 0
FLAG 2400 368 0
FLAG 2032 208 0
FLAG 2208 688 0
FLAG 2528 688 0
FLAG 2656 592 saw_out
FLAG 2416 768 0
FLAG 3104 1152 square_out
FLAG 2912 2000 V+
FLAG 2688 2080 V+
FLAG 2384 2112 0
FLAG 2768 2400 0
FLAG 2272 1968 V+
FLAG 2912 2096 V-
FLAG 2032 2176 0
FLAG 3408 2848 0
FLAG 3504 2784 0
FLAG 3568 1984 V+
FLAG 3568 2080 V-
FLAG 3616 2272 V+
FLAG 3760 2480 0
FLAG 3792 2080 V+
FLAG 1856 2256 0
FLAG 1984 3104 0
FLAG 3984 2320 0
FLAG 2032 2640 0
FLAG 2016 2512 V+
FLAG 2016 2752 V-
FLAG 3616 2368 V-
FLAG 4112 2176 Envelope_Out
IOPIN 4112 2176 Out
FLAG 1952 304 0
FLAG 1600 640 0
FLAG 1280 352 0
FLAG 1056 416 0
FLAG 1392 -96 0
FLAG 1232 688 0
FLAG 1456 400 0
FLAG 912 432 0
FLAG 3616 -176 0
FLAG 3488 624 0
FLAG 3376 112 0
FLAG 3776 192 0
FLAG 3952 80 triangle_out
FLAG 4720 1440 0
FLAG 4720 1296 VCC
FLAG 5280 1248 VSS
FLAG 5280 1120 VCC
FLAG 5520 1392 0
FLAG 5424 1296 VSS
FLAG 5424 1056 VCC
FLAG 4832 1440 0
FLAG 4832 1296 VSS
FLAG 4784 704 ADSR
FLAG 5120 768 0
FLAG 5552 672 0
FLAG 5184 688 VCC
FLAG 5184 752 VSS
FLAG 5136 1296 0
FLAG 5728 1248 0
FLAG 5872 1200 Vout
FLAG 4992 1120 VCF
FLAG 5776 1232 VSS
FLAG 5776 1168 VCC
SYMBOL voltage 2688 1264 R0
WINDOW 123 0 0 Left 0
WINDOW 39 0 0 Left 0
SYMATTR InstName V5
SYMATTR Value -10
SYMBOL voltage 2672 992 R270
WINDOW 0 32 56 VTop 2
WINDOW 3 -32 56 VBottom 2
WINDOW 123 0 0 Left 0
WINDOW 39 0 0 Left 0
SYMATTR InstName V8
SYMATTR Value 10
SYMBOL res 2528 1184 R0
SYMATTR InstName R13
SYMATTR Value 1k
SYMBOL res 2816 1120 R90
WINDOW 0 0 56 VBottom 2
WINDOW 3 32 56 VTop 2
SYMATTR InstName R14
SYMATTR Value 1e6
SYMBOL Opamps\\UniversalOpamp2 2688 1216 R0
SYMATTR InstName U6
SYMBOL res 3664 976 R90
WINDOW 0 0 56 VBottom 2
WINDOW 3 32 56 VTop 2
SYMATTR InstName R15
SYMATTR Value 2.5k
SYMBOL res 4032 976 R90
WINDOW 0 0 56 VBottom 2
WINDOW 3 32 56 VTop 2
SYMATTR InstName R16
SYMATTR Value 2.5k
SYMBOL cap 3696 1024 R0
SYMATTR InstName C2
SYMATTR Value 10n
SYMBOL cap 4048 1024 R0
SYMATTR InstName C3
SYMATTR Value 10n
SYMBOL Opamps\\UniversalOpamp2 3824 976 R0
SYMATTR InstName U7
SYMBOL Opamps\\UniversalOpamp2 4176 976 R0
SYMATTR InstName U8
SYMBOL voltage 4016 800 R0
WINDOW 3 24 44 Left 2
WINDOW 123 0 0 Left 0
WINDOW 39 0 0 Left 0
SYMATTR Value 10
SYMATTR InstName V9
SYMBOL voltage 4016 1296 R180
WINDOW 0 24 96 Left 2
WINDOW 3 24 16 Left 2
WINDOW 123 0 0 Left 0
WINDOW 39 0 0 Left 0
SYMATTR InstName V10
SYMATTR Value 10
SYMBOL Opamps\\UniversalOpamp2 3024 1232 R0
SYMATTR InstName U10
SYMBOL res 2944 1200 R90
WINDOW 0 0 56 VBottom 2
WINDOW 3 32 56 VTop 2
SYMATTR InstName R26
SYMATTR Value 2k
SYMBOL res 3072 1136 R90
WINDOW 0 0 56 VBottom 2
WINDOW 3 32 56 VTop 2
SYMATTR InstName R27
SYMATTR Value 1k
SYMBOL voltage 2528 -112 R270
WINDOW 0 32 56 VTop 2
WINDOW 3 -32 56 VBottom 2
WINDOW 123 0 0 Left 0
WINDOW 39 0 0 Left 0
SYMATTR InstName V1
SYMATTR Value 10
SYMBOL res 2384 272 R0
SYMATTR InstName R1
SYMATTR Value 5k
SYMBOL res 2640 272 R90
WINDOW 0 0 56 VBottom 2
WINDOW 3 32 56 VTop 2
SYMATTR InstName R2
SYMATTR Value 5k
SYMBOL res 2384 -48 R0
SYMATTR InstName R3
SYMATTR Value 5k
SYMBOL cap 2016 144 R0
SYMATTR InstName C1
SYMATTR Value 2.2n, IC=0
SYMBOL diode 2128 48 R90
WINDOW 0 0 32 VBottom 2
WINDOW 3 32 32 VTop 2
SYMATTR InstName D1
SYMATTR Value 1N4148
SYMBOL voltage 2208 592 R0
WINDOW 123 0 0 Left 0
WINDOW 39 0 0 Left 0
SYMATTR InstName V3
SYMATTR Value -10
SYMBOL Opamps\\UniversalOpamp2 2544 128 R0
SYMATTR InstName U1
SYMBOL Opamps\\UniversalOpamp2 2208 544 R0
SYMATTR InstName U2
SYMBOL res 2576 464 R90
WINDOW 0 0 56 VBottom 2
WINDOW 3 -29 17 VTop 2
SYMATTR InstName R4
SYMATTR Value 5k
SYMBOL res 2448 464 R90
WINDOW 0 0 56 VBottom 2
WINDOW 3 32 56 VTop 2
SYMATTR InstName R5
SYMATTR Value 1k
SYMBOL voltage 2528 592 R0
WINDOW 123 0 0 Left 0
WINDOW 39 0 0 Left 0
SYMATTR InstName V4
SYMATTR Value -10
SYMBOL Opamps\\UniversalOpamp2 2528 544 R0
SYMATTR InstName U11
SYMBOL voltage 2416 656 R0
WINDOW 123 0 0 Left 0
WINDOW 39 0 0 Left 0
SYMATTR InstName V18
SYMATTR Value 3.64
SYMBOL pjf 3184 2288 M270
WINDOW 0 36 33 VRight 2
WINDOW 3 67 3 VRight 2
SYMATTR InstName Q2
SYMATTR Value 2N5460
SYMBOL OpAmps\\UniversalOpamp2 2896 2048 R0
WINDOW 0 -26 -1 Left 2
SYMATTR InstName U12
SYMBOL Misc\\NE555 2544 2176 R0
SYMATTR InstName TIMER_1
SYMBOL res 2368 1984 R270
WINDOW 0 34 55 VTop 2
WINDOW 3 2 55 VBottom 2
SYMATTR InstName R30
SYMATTR Value 10k
SYMBOL cap 2784 2320 R180
WINDOW 0 22 49 Left 2
WINDOW 3 11 15 Right 2
SYMATTR InstName C4
SYMATTR Value 2.2µ
SYMBOL cap 2720 2352 R180
WINDOW 0 23 13 Left 2
WINDOW 3 11 13 Right 2
SYMATTR InstName C5
SYMATTR Value 10n
SYMBOL res 2544 1984 R270
WINDOW 0 -11 18 VTop 2
WINDOW 3 16 116 VBottom 2
SYMATTR InstName R32
SYMATTR Value 80k
SYMBOL Digital\\inv 2032 2080 R0
WINDOW 0 23 63 Right 1
WINDOW 3 8 4 Invisible 2
SYMATTR InstName A1
SYMATTR Value Vhigh 15
SYMATTR Value2 tD 1u
SYMBOL npn 3344 2720 R0
WINDOW 0 31 34 Left 2
WINDOW 3 32 60 Left 2
SYMATTR InstName Q4
SYMATTR Value 2N3904
SYMBOL res 3296 2752 R90
WINDOW 0 0 59 VBottom 2
WINDOW 3 30 54 VTop 2
SYMATTR InstName R36
SYMATTR Value 3.3k
SYMBOL cap 3520 2752 R180
WINDOW 0 21 50 Left 2
WINDOW 3 11 15 Right 2
SYMATTR InstName C9
SYMATTR Value 2.2µ
SYMBOL res 3056 2064 R270
WINDOW 0 32 59 VTop 2
WINDOW 3 1 58 VBottom 2
SYMATTR InstName R37
SYMATTR Value 220
SYMBOL diode 3232 2064 R270
WINDOW 0 32 32 VTop 2
WINDOW 3 0 32 VBottom 2
SYMATTR InstName D6
SYMATTR Value 1N4148
SYMBOL OpAmps\\UniversalOpamp2 3536 2032 R0
WINDOW 0 -26 -1 Left 2
SYMATTR InstName U14
SYMBOL res 3232 2256 R270
WINDOW 0 15 9 VTop 2
WINDOW 3 43 106 VBottom 2
SYMATTR InstName R38
SYMATTR Value 50k
SYMBOL pjf 3184 2576 M270
WINDOW 0 35 32 VRight 2
WINDOW 3 68 5 VRight 2
SYMATTR InstName Q5
SYMATTR Value 2N5460
SYMBOL res 3232 2544 R270
WINDOW 0 15 0 VTop 2
WINDOW 3 43 102 VBottom 2
SYMATTR InstName R41
SYMATTR Value 56k
SYMBOL diode 3136 2880 R180
WINDOW 0 21 58 Left 2
WINDOW 3 -82 3 Left 2
SYMATTR InstName D7
SYMATTR Value 1N4148
SYMBOL diode 3520 2336 M270
WINDOW 0 32 32 VTop 2
WINDOW 3 0 32 VBottom 2
SYMATTR InstName D8
SYMATTR Value 1N4148
SYMBOL OpAmps\\UniversalOpamp2 3584 2320 M0
WINDOW 0 -26 -1 Left 2
SYMATTR InstName U15
SYMBOL res 3744 2208 R0
WINDOW 0 -32 30 Left 2
WINDOW 3 23 48 Left 2
SYMATTR InstName R42
SYMATTR Value 300k
SYMBOL res 3744 2352 R0
WINDOW 0 -34 29 Left 2
WINDOW 3 21 82 Left 2
SYMATTR InstName R43
SYMATTR Value 700k
SYMBOL res 3744 2096 R0
WINDOW 0 -18 30 Left 2
WINDOW 3 21 81 Left 2
SYMATTR InstName R44
SYMATTR Value 500k
SYMBOL voltage 1856 2144 R0
WINDOW 0 -1 43 Top 2
WINDOW 3 -31 152 Left 2
WINDOW 123 63 106 Bottom 2
WINDOW 39 0 0 Left 0
SYMATTR InstName V19
SYMATTR Value PULSE(0 12 0 1u 1u 2m 2m 1)
SYMATTR Value2 AC AC 1
SYMBOL voltage 1984 2992 R0
WINDOW 0 -1 43 Top 2
WINDOW 3 137 92 Left 2
WINDOW 123 63 106 Bottom 2
WINDOW 39 0 0 Left 0
SYMATTR InstName V20
SYMATTR Value PULSE(0 12 0 10u 10u 0.35 0.35 1)
SYMATTR Value2 AC AC 1
SYMBOL res 3968 2048 R0
WINDOW 0 -46 28 Left 2
WINDOW 3 21 84 Left 2
SYMATTR InstName R45
SYMATTR Value 0
SYMBOL res 3968 2192 R0
WINDOW 0 -48 29 Left 2
WINDOW 3 22 82 Left 2
SYMATTR InstName R46
SYMATTR Value 10k
SYMBOL voltage 1968 2624 M0
WINDOW 0 0 70 Bottom 2
WINDOW 3 25 0 Top 2
WINDOW 123 0 0 Left 2
WINDOW 39 -60 56 VBottom 2
SYMATTR InstName V22
SYMATTR Value 12
SYMBOL voltage 1968 2512 M0
WINDOW 0 0 70 Bottom 2
WINDOW 3 21 -2 Top 2
WINDOW 123 0 0 Left 2
WINDOW 39 -60 56 VBottom 2
SYMATTR InstName V23
SYMATTR Value 12
SYMBOL npn2 1680 240 R0
SYMATTR InstName Q1
SYMATTR Value BC547B
SYMBOL npn2 1920 240 M0
WINDOW 3 -37 112 Left 2
SYMATTR Value BC547B
SYMATTR InstName Q6
SYMBOL res 1728 16 R0
SYMATTR InstName R47
SYMATTR Value 1e6
SYMBOL voltage 1504 -128 R90
WINDOW 0 -32 56 VBottom 2
WINDOW 3 32 56 VTop 2
WINDOW 123 0 0 Left 0
WINDOW 39 0 0 Left 0
SYMATTR InstName V2
SYMATTR Value 10V
SYMBOL voltage 1056 288 R0
WINDOW 123 0 0 Left 0
WINDOW 39 0 0 Left 0
SYMATTR InstName CV1
SYMATTR Value 1
SYMBOL Opamps\\UniversalOpamp2 1344 288 R0
SYMATTR InstName U16
SYMBOL Opamps\\UniversalOpamp2 1648 576 R0
SYMATTR InstName U17
SYMBOL res 1776 384 R0
SYMATTR InstName R48
SYMATTR Value 10k
SYMBOL res 1232 256 R90
WINDOW 0 0 56 VBottom 2
WINDOW 3 32 56 VTop 2
SYMATTR InstName R49
SYMATTR Value 100k
SYMBOL res 1344 144 R90
WINDOW 0 0 56 VBottom 2
WINDOW 3 32 56 VTop 2
SYMATTR InstName R50
SYMATTR Value 2k
SYMBOL voltage 1344 656 R90
WINDOW 0 -32 56 VBottom 2
WINDOW 3 32 56 VTop 2
WINDOW 123 0 0 Left 0
WINDOW 39 0 0 Left 0
SYMATTR InstName V13
SYMATTR Value -10
SYMBOL cap 1744 480 R90
WINDOW 0 0 32 VBottom 2
WINDOW 3 32 32 VTop 2
SYMATTR InstName C10
SYMATTR Value 100p
SYMBOL res 1440 160 R0
SYMATTR InstName R51
SYMATTR Value 50
SYMBOL res 1440 288 R0
SYMATTR InstName R52
SYMATTR Value 440
SYMBOL voltage 912 288 R0
WINDOW 123 0 0 Left 0
WINDOW 39 0 0 Left 0
WINDOW 0 -234 -3 Left 2
SYMATTR InstName cv_tuning_offset1
SYMATTR Value -6.53
SYMBOL res 1120 160 R90
WINDOW 0 0 56 VBottom 2
WINDOW 3 32 56 VTop 2
SYMATTR InstName R53
SYMATTR Value 100k
SYMBOL voltage 3504 -176 R270
WINDOW 123 0 0 Left 0
WINDOW 39 0 0 Left 0
SYMATTR InstName V6
SYMATTR Value 10
SYMBOL voltage 3488 528 R0
WINDOW 123 0 0 Left 0
WINDOW 39 0 0 Left 0
SYMATTR InstName V7
SYMATTR Value -10
SYMBOL Opamps\\UniversalOpamp2 3488 64 R0
SYMATTR InstName U3
SYMBOL res 3344 32 R90
WINDOW 0 0 56 VBottom 2
WINDOW 3 32 56 VTop 2
SYMATTR InstName R6
SYMATTR Value 10k
SYMBOL res 3488 -64 R90
WINDOW 0 0 56 VBottom 2
WINDOW 3 32 56 VTop 2
SYMATTR InstName R7
SYMATTR Value 10k
SYMBOL diode 3568 80 R270
WINDOW 0 32 32 VTop 2
WINDOW 3 0 32 VBottom 2
SYMATTR InstName D2
SYMBOL diode 3296 272 R270
WINDOW 0 32 32 VTop 2
WINDOW 3 0 32 VBottom 2
SYMATTR InstName D3
SYMBOL Opamps\\UniversalOpamp2 3840 80 R0
SYMATTR InstName U5
SYMBOL res 3664 80 R270
WINDOW 0 32 56 VTop 2
WINDOW 3 0 56 VBottom 2
SYMATTR InstName R8
SYMATTR Value 10k
SYMBOL res 3792 0 R270
WINDOW 0 32 56 VTop 2
WINDOW 3 0 56 VBottom 2
SYMATTR InstName R9
SYMATTR Value 20k
SYMBOL res 3680 208 R0
SYMATTR InstName R10
SYMATTR Value 10k
SYMBOL cap 3936 -96 R90
WINDOW 0 0 32 VBottom 2
WINDOW 3 32 32 VTop 2
SYMATTR InstName C11
SYMATTR Value 22f
SYMBOL cap 3232 352 R90
WINDOW 0 0 32 VBottom 2
WINDOW 3 32 32 VTop 2
SYMATTR InstName C12
SYMATTR Value 470p
SYMBOL res 3408 352 R90
WINDOW 0 0 56 VBottom 2
WINDOW 3 32 56 VTop 2
SYMATTR InstName R11
SYMATTR Value 20k
SYMBOL voltage 3776 96 R0
WINDOW 123 0 0 Left 0
WINDOW 39 0 0 Left 0
SYMATTR InstName V17
SYMATTR Value 1.25
SYMBOL LM13700 5248 1104 R0
SYMATTR InstName U4
SYMBOL voltage 4720 1312 R0
WINDOW 123 0 0 Left 2
WINDOW 39 0 0 Left 2
SYMATTR InstName V11
SYMATTR Value 10
SYMBOL res 5504 1248 R0
SYMATTR InstName R12
SYMATTR Value 1Meg
SYMBOL res 5408 1072 R0
SYMATTR InstName R17
SYMATTR Value 1k
SYMBOL res 5408 1184 R0
SYMATTR InstName R18
SYMATTR Value 1k
SYMBOL voltage 4832 1312 R0
WINDOW 123 0 0 Left 2
WINDOW 39 0 0 Left 2
SYMATTR InstName V12
SYMATTR Value -10
SYMBOL Opamps\\UniversalOpamp2 5184 720 R0
SYMATTR InstName U9
SYMBOL res 5040 688 R90
WINDOW 0 0 56 VBottom 2
WINDOW 3 32 56 VTop 2
SYMATTR InstName R19
SYMATTR Value 100k
SYMBOL pnp 5264 768 M180
SYMATTR InstName Q7
SYMATTR Value 2N3906
SYMBOL res 5328 608 R90
WINDOW 0 0 56 VBottom 2
WINDOW 3 32 56 VTop 2
SYMATTR InstName R20
SYMATTR Value 100k
SYMBOL res 5504 608 R90
WINDOW 0 0 56 VBottom 2
WINDOW 3 32 56 VTop 2
SYMATTR InstName R21
SYMATTR Value 24k
SYMBOL res 5120 1104 R90
WINDOW 0 0 56 VBottom 2
WINDOW 3 32 56 VTop 2
SYMATTR InstName R22
SYMATTR Value 100k
SYMBOL res 5120 1120 R0
SYMATTR InstName R23
SYMATTR Value 100
SYMBOL Opamps\\UniversalOpamp2 5776 1200 R0
SYMATTR InstName U13
SYMBOL res 5856 1040 R90
WINDOW 0 0 56 VBottom 2
WINDOW 3 32 56 VTop 2
SYMATTR InstName R24
SYMATTR Value 100k
TEXT 2664 1456 Left 2 ;saw_to_square
TEXT 2120 776 Left 2 ;saw_gen
TEXT 2408 1872 Center 2 ;This is a 1 Meg\nlinear taper pot.
TEXT 2544 1880 Left 3 ;Attack
TEXT 2656 1920 Right 2 ;cw
TEXT 2768 2272 Left 2 ;+
TEXT 1920 2096 Center 2 ;Simulated\nTrigger In
TEXT 3056 1896 Center 5 ;ADSR
TEXT 2088 2888 Center 2 ;The noise gate keeps this input\nactive while a note plays, then\ndrops to 0 volts to initiate Release\nwhen the note stops.
TEXT 3520 2144 Center 2 ;This is a 1 Meg\nlinear taper pot.
TEXT 3264 2616 Center 2 ;This is a 250k\nlinear taper pot.
TEXT 3360 2288 Right 2 ;cw
TEXT 3360 2576 Right 2 ;cw
TEXT 3248 2184 Left 3 ;Decay
TEXT 3224 2480 Left 3 ;Release
TEXT 3960 2360 Center 2 ;This is really a 1 Meg\nlinear taper pot.
TEXT 3728 2272 VRight 2 ;cw
TEXT 3776 2304 Left 3 ;Sustain
TEXT 2352 2208 Left 2 ;nc
TEXT 3512 2760 Left 2 ;Film
TEXT 4168 2224 Center 2 ;This is really a 10k\nlinear taper pot.
TEXT 3920 1968 Left 3 ;Output\nAmount
TEXT 4032 2112 VRight 2 ;cw
TEXT 1904 2480 Left 2 ;Power Supply
TEXT 3128 2288 Left 2 ;g
TEXT 3096 2256 Left 2 ;s
TEXT 3168 2256 Left 2 ;d
TEXT 3128 2576 Left 2 ;g
TEXT 3168 2544 Left 2 ;d
TEXT 3096 2544 Left 2 ;s
TEXT 3104 2384 Left 2 ;Closed
TEXT 3320 2352 Left 2 ;Open
TEXT 3040 2688 Left 2 ;Closed
TEXT 2848 2656 Left 2 ;Open
TEXT 3496 1928 Left 2 ;FET op-amp
TEXT 2912 2640 Left 2 ;A D S
TEXT 3008 2704 Left 2 ;R
TEXT 3184 2400 Left 2 ;A D
TEXT 3224 2336 Left 2 ;S
TEXT 3280 2336 Left 2 ;R
TEXT 2848 2272 Left 2 ;D
TEXT 2792 2272 Left 2 ;A
TEXT 2832 2160 Left 2 ;8V
TEXT 520 136 Left 2 ;U3 scales and offset the CV input
TEXT 704 -32 Left 2 ;R50 needs to be tempco to cancel out Vt variation
TEXT 3936 -120 Left 2 ;saw_to_triangle
TEXT 5016 1544 Left 2 !.lib lm13700.sub
TEXT 5016 1512 Left 2 !.tran 1 startup
LINE Normal 2400 2384 2400 2384 1
LINE Normal 2567 1952 2512 1904
LINE Normal 2672 1904 2672 1952
LINE Normal 2592 1904 2672 1904
LINE Normal 2592 1959 2592 1904
LINE Normal 2592 1959 2592 1959
LINE Normal 2584 1941 2592 1959
LINE Normal 2592 1959 2584 1941
LINE Normal 2600 1940 2592 1959
LINE Normal 2620 1922 2564 1922
LINE Normal 2620 1922 2620 1922
LINE Normal 2602 1930 2620 1922
LINE Normal 2620 1922 2602 1930
LINE Normal 2601 1914 2620 1922
LINE Normal 1904 2192 1904 2192
LINE Normal 1920 2192 1904 2192
LINE Normal 1920 2160 1920 2192
LINE Normal 1936 2160 1920 2160
LINE Normal 1936 2192 1936 2160
LINE Normal 2000 2192 1936 2192
LINE Normal 2032 3040 2032 3040
LINE Normal 2048 3040 2032 3040
LINE Normal 2048 3008 2048 3040
LINE Normal 2160 3008 2048 3008
LINE Normal 2160 3040 2160 3008
LINE Normal 2192 3040 2160 3040
LINE Normal 3425 2158 3320 2210
LINE Normal 3266 2541 3222 2602
LINE Normal 3296 2304 3376 2304
LINE Normal 3296 2256 3296 2304
LINE Normal 3296 2256 3296 2256
LINE Normal 3288 2274 3296 2256
LINE Normal 3296 2256 3288 2274
LINE Normal 3304 2275 3296 2256
LINE Normal 3324 2290 3269 2290
LINE Normal 3324 2290 3324 2290
LINE Normal 3306 2282 3324 2290
LINE Normal 3324 2290 3306 2282
LINE Normal 3305 2298 3324 2290
LINE Normal 3296 2592 3376 2592
LINE Normal 3296 2544 3296 2592
LINE Normal 3296 2544 3296 2544
LINE Normal 3288 2562 3296 2544
LINE Normal 3296 2544 3288 2562
LINE Normal 3304 2563 3296 2544
LINE Normal 3324 2578 3271 2578
LINE Normal 3324 2578 3324 2578
LINE Normal 3306 2570 3324 2578
LINE Normal 3324 2578 3306 2570
LINE Normal 3305 2586 3324 2578
LINE Normal 3376 2544 3376 2592
LINE Normal 3376 2256 3376 2304
LINE Normal 3729 2307 3729 2363
LINE Normal 3729 2307 3729 2307
LINE Normal 3721 2325 3729 2307
LINE Normal 3729 2307 3721 2325
LINE Normal 3737 2326 3729 2307
LINE Normal 3712 2016 3696 2016
LINE Normal 3728 1936 3712 2016
LINE Normal 3760 2000 3728 1936
LINE Normal 3840 2000 3760 2000
LINE Normal 3872 2016 3840 2000
LINE Normal 3888 2016 3872 2016
LINE Normal 4055 2240 4000 2192
LINE Normal 3839 2380 3775 2338
LINE Normal 4034 2150 4034 2205
LINE Normal 4034 2150 4034 2150
LINE Normal 4026 2168 4034 2150
LINE Normal 4034 2150 4026 2168
LINE Normal 4042 2169 4034 2150
LINE Normal 2096 2128 2096 2128
LINE Normal 2112 2096 2096 2096
LINE Normal 2112 2096 2112 2128
LINE Normal 2128 2128 2112 2128
LINE Normal 2128 2128 2128 2096
LINE Normal 2192 2096 2128 2096
LINE Normal 3184 2384 3184 2384
LINE Normal 3232 2384 3184 2384
LINE Normal 3232 2352 3232 2384
LINE Normal 3232 2352 3232 2352
LINE Normal 3312 2352 3232 2352
LINE Normal 3040 2688 3040 2688
LINE Normal 3008 2688 3040 2688
LINE Normal 3008 2656 3008 2688
LINE Normal 3008 2656 3008 2656
LINE Normal 2912 2656 3008 2656
LINE Normal 2809 2234 2800 2257
LINE Normal 2821 2212 2809 2234
LINE Normal 2838 2190 2821 2212
LINE Normal 2852 2177 2838 2190
LINE Normal 2852 2177 2852 2177
LINE Normal 2852 2257 2852 2177
LINE Normal 2800 2257 2786 2257
LINE Normal 2916 2257 2852 2257
RECTANGLE Normal 2086 2774 1881 2451 2
RECTANGLE Normal 2078 2767 1889 2458 2
