Version 4
SHEET 1 880 680
WIRE 208 -80 208 -144
WIRE 208 32 208 0
WIRE 256 32 208 32
WIRE 304 48 304 16
WIRE 64 80 16 80
WIRE 16 112 16 80
WIRE 256 112 256 32
WIRE 304 144 304 128
WIRE 304 144 288 144
WIRE 336 144 304 144
WIRE 304 160 304 144
WIRE 64 208 -32 208
WIRE -32 224 -32 208
WIRE 400 224 400 176
WIRE 304 256 304 240
WIRE -336 288 -336 256
WIRE -224 288 -224 256
WIRE -32 336 -32 304
WIRE 400 352 400 304
WIRE -336 400 -336 368
WIRE -224 400 -224 368
FLAG -336 400 0
FLAG -336 256 VCC
FLAG 160 208 VSS
FLAG 160 80 VCC
FLAG 400 352 0
FLAG 208 -144 VCC
FLAG 304 256 VSS
FLAG 304 16 VCC
FLAG -224 400 0
FLAG -224 256 VSS
FLAG -32 336 0
FLAG 16 112 0
SYMBOL LM13700 128 64 R0
SYMATTR InstName U1
SYMBOL voltage -336 272 R0
WINDOW 123 0 0 Left 2
WINDOW 39 0 0 Left 2
SYMATTR InstName V1
SYMATTR Value 10
SYMBOL res 384 208 R0
SYMATTR InstName R3
SYMATTR Value 1Meg
SYMBOL voltage -32 208 R0
WINDOW 123 24 124 Left 2
WINDOW 39 0 0 Left 2
SYMATTR Value2 AC 1m
SYMATTR InstName V2
SYMATTR Value SINE(0 1m 1k)
SYMBOL current 208 -80 R0
WINDOW 123 0 0 Left 2
WINDOW 39 0 0 Left 2
WINDOW 3 91 6 Left 2
SYMATTR InstName I1
SYMATTR Value PULSE(0 8m 0 5m 5m 10m)
SYMBOL res 288 32 R0
SYMATTR InstName R4
SYMATTR Value 1k
SYMBOL res 288 144 R0
SYMATTR InstName R5
SYMATTR Value 1k
SYMBOL voltage -224 272 R0
WINDOW 123 0 0 Left 2
WINDOW 39 0 0 Left 2
SYMATTR InstName V3
SYMATTR Value -10
TEXT 488 -152 Left 2 !.lib lm13700.sub
TEXT 488 -184 Left 2 !.tran 1u 100m
